<?xml version="1.0" encoding="UTF-8"?>
<routes xmlns:xsi="http://www.w3.org/2001/XMLSchema-instance" xsi:noNamespaceSchemaLocation="http://sumo.dlr.de/xsd/routes_file.xsd">
    
    <vType id="car" accel="0.8" decel="4.5" sigma="0.5" length="5.0" minGap="2.5" maxSpeed="13.9" color="1,0,0"/>

    <route id="route0" edges="e0 e1"/>

    <vehicle id="veh0" type="car" route="route0" depart="0"/>

</routes>